    38  

   Ar                   -0.87266977214562821E-01        -0.11602443531405995E+01        -0.12579607477588300E+00
   Ar                   -0.57051358105952077E+00         0.98383096092438937E+00        -0.28121088208932887E+00
   Ar                   -0.12521222006252535E+01        -0.75488238135871155E+00         0.13362594260038076E+01
   Ar                    0.15769134367144571E+01        -0.23724923173691967E+00        -0.31918220492930011E+00
   Ar                    0.38811758625165360E+00         0.66336194914743507E+00         0.15699015454570178E+00
   Ar                   -0.68430550537082607E-01        -0.16572542944570967E+01         0.86323627108723522E+00
   Ar                   -0.10307636531686724E+01        -0.13384655248527180E+01         0.42521184043331484E+00
   Ar                   -0.12680962685365138E+01        -0.26005443567361874E+00         0.34608318508808444E+00
   Ar                    0.87763947640195783E+00        -0.14841508836934425E+01         0.30963266736889977E+00
   Ar                    0.40883539135669150E+00         0.17542678735251491E+00         0.11396536584559587E+01
   Ar                    0.14983255338032822E+00         0.17449949295918863E+01         0.75566109378453275E-01
   Ar                   -0.79623777632269144E+00         0.15718916957015518E+01         0.62916895081722457E+00
   Ar                    0.15977636759816221E+01        -0.72830319256213250E+00         0.66976056669323047E+00
   Ar                    0.43384386414657233E+00        -0.31414010351327021E+00         0.21361664582617537E+01
   Ar                   -0.77538839153063865E+00         0.10808382196035862E+01         0.16181119972141560E+01
   Ar                   -0.35244184543366958E+00         0.40188116260187356E+00        -0.11973646947166232E+01
   Ar                   -0.52891410625052016E+00         0.40997994679114053E-02         0.16918920872430039E+01
   Ar                   -0.14955120210330528E+01         0.32499006234978195E+00         0.12579839962799082E+01
   Ar                    0.13753267121016308E+01        -0.14187661897798814E+00         0.15852472765533410E+01
   Ar                    0.16866847575493210E+00         0.12479848575200747E+01         0.10645983315847416E+01
   Ar                   -0.10517154978382908E+01        -0.84501961750070398E+00        -0.56854994259480396E+00
   Ar                    0.85678965510970040E+00        -0.99309726077868032E+00        -0.67931032157785798E+00
   Ar                    0.62878869872448395E+00        -0.40445074787854446E+00         0.23439107999631520E+00
   Ar                    0.37119094462288427E+00         0.11614117981595009E+01        -0.83548148681085255E+00
   Ar                   -0.28978883386265625E+00        -0.10736705880347690E+01         0.17742837129378499E+01
   Ar                    0.61031561557489078E+00         0.83641285759565906E-01        -0.75309015642807942E+00
   Ar                    0.19163351454852406E+00         0.76049618165371968E+00         0.20582710862488853E+01
   Ar                    0.13494979177718753E+01         0.34779503790280353E+00         0.59271900654650567E+00
   Ar                   -0.54738716883372873E+00         0.49219151878226802E+00         0.70441076924802359E+00
   Ar                   -0.15163618839057127E+01         0.81604381321409603E+00         0.26904101450512907E+00
   Ar                   -0.32743378635792592E+00        -0.87686176795835416E-01        -0.20085161098301305E+00
   Ar                   -0.30671583699073574E+00        -0.57562130216551277E+00         0.78181196950409493E+00
   Ar                    0.13335239651491735E+01         0.84262335924887921E+00        -0.39745690400033645E+00
   Ar                    0.11331167677262617E+01         0.93275976774310088E+00         0.15073525493498852E+01
   Ar                   -0.12939247041384776E+01         0.22961694660534321E+00        -0.64644557939007929E+00
   Ar                   -0.11023251000179618E+00        -0.67275530682993268E+00        -0.11194686600337387E+01
   Ar                    0.11121653188497485E+01         0.14262060101613627E+01         0.51359099634516037E+00
   Ar                    0.65191553328326113E+00        -0.89609025120053576E+00         0.12200127157980656E+01
